data_image0
_chemical_formula_structural       Ni8H24C48O26
_chemical_formula_sum              "Ni8 H24 C48 O26"
_cell_length_a       18.2553
_cell_length_b       18.2552
_cell_length_c       18.2554
_cell_angle_alpha    59.9991
_cell_angle_beta     59.9992
_cell_angle_gamma    59.9988

_space_group_name_H-M_alt    "P 1"
_space_group_IT_number       1

loop_
  _space_group_symop_operation_xyz
  'x, y, z'

loop_
  _atom_site_type_symbol
  _atom_site_label
  _atom_site_symmetry_multiplicity
  _atom_site_fract_x
  _atom_site_fract_y
  _atom_site_fract_z
  _atom_site_occupancy
  Ni  Ni1       1.0  0.79235  0.79234  0.79232  1.0000
  Ni  Ni2       1.0  0.62303  0.79234  0.79231  1.0000
  Ni  Ni3       1.0  0.79235  0.62300  0.79232  1.0000
  Ni  Ni4       1.0  0.79234  0.79234  0.62300  1.0000
  Ni  Ni5       1.0  0.37699  0.20766  0.20766  1.0000
  Ni  Ni6       1.0  0.20766  0.20765  0.20766  1.0000
  Ni  Ni7       1.0  0.20766  0.37698  0.20766  1.0000
  Ni  Ni8       1.0  0.20766  0.20766  0.37699  1.0000
  H   H1        1.0  0.66624  0.95146  0.95146  1.0000
  H   H2        1.0  0.43084  0.95146  0.95146  1.0000
  H   H3        1.0  0.95146  0.43085  0.66624  1.0000
  H   H4        1.0  0.95146  0.66624  0.43085  1.0000
  H   H5        1.0  0.95146  0.95146  0.66624  1.0000
  H   H6        1.0  0.95146  0.95146  0.43085  1.0000
  H   H7        1.0  0.43085  0.66624  0.95146  1.0000
  H   H8        1.0  0.66624  0.43085  0.95146  1.0000
  H   H9        1.0  0.95146  0.66624  0.95146  1.0000
  H   H10       1.0  0.95146  0.43084  0.95146  1.0000
  H   H11       1.0  0.66624  0.95146  0.43085  1.0000
  H   H12       1.0  0.43085  0.95146  0.66624  1.0000
  H   H13       1.0  0.56915  0.04855  0.04855  1.0000
  H   H14       1.0  0.33375  0.04855  0.04855  1.0000
  H   H15       1.0  0.04854  0.56916  0.33376  1.0000
  H   H16       1.0  0.04854  0.33376  0.56916  1.0000
  H   H17       1.0  0.56916  0.04855  0.33376  1.0000
  H   H18       1.0  0.33376  0.04855  0.56916  1.0000
  H   H19       1.0  0.04855  0.33375  0.04855  1.0000
  H   H20       1.0  0.04855  0.56915  0.04855  1.0000
  H   H21       1.0  0.56915  0.33376  0.04855  1.0000
  H   H22       1.0  0.33376  0.56916  0.04855  1.0000
  H   H23       1.0  0.04855  0.04855  0.56915  1.0000
  H   H24       1.0  0.04854  0.04855  0.33376  1.0000
  C   C1        1.0  0.59341  0.97309  0.97309  1.0000
  C   C2        1.0  0.46041  0.97309  0.97309  1.0000
  C   C3        1.0  0.97308  0.46042  0.59342  1.0000
  C   C4        1.0  0.97308  0.59342  0.46042  1.0000
  C   C5        1.0  0.97308  0.97308  0.59342  1.0000
  C   C6        1.0  0.97308  0.97308  0.46042  1.0000
  C   C7        1.0  0.46041  0.59342  0.97308  1.0000
  C   C8        1.0  0.59342  0.46042  0.97308  1.0000
  C   C9        1.0  0.97309  0.59341  0.97309  1.0000
  C   C10       1.0  0.97309  0.46042  0.97309  1.0000
  C   C11       1.0  0.59342  0.97308  0.46042  1.0000
  C   C12       1.0  0.46042  0.97308  0.59342  1.0000
  C   C13       1.0  0.53957  0.02693  0.02693  1.0000
  C   C14       1.0  0.40657  0.02693  0.02693  1.0000
  C   C15       1.0  0.02692  0.53958  0.40658  1.0000
  C   C16       1.0  0.02692  0.40658  0.53958  1.0000
  C   C17       1.0  0.53958  0.02692  0.40658  1.0000
  C   C18       1.0  0.40658  0.02692  0.53958  1.0000
  C   C19       1.0  0.02693  0.40657  0.02693  1.0000
  C   C20       1.0  0.02693  0.53957  0.02693  1.0000
  C   C21       1.0  0.53958  0.40658  0.02692  1.0000
  C   C22       1.0  0.40658  0.53958  0.02692  1.0000
  C   C23       1.0  0.02692  0.02693  0.53957  1.0000
  C   C24       1.0  0.02692  0.02693  0.40658  1.0000
  C   C25       1.0  0.61192  0.88808  0.88807  1.0000
  C   C26       1.0  0.55416  0.94584  0.94585  1.0000
  C   C27       1.0  0.88807  0.61194  0.61192  1.0000
  C   C28       1.0  0.94583  0.55417  0.55416  1.0000
  C   C29       1.0  0.88807  0.88807  0.61192  1.0000
  C   C30       1.0  0.94583  0.94584  0.55416  1.0000
  C   C31       1.0  0.61192  0.61193  0.88808  1.0000
  C   C32       1.0  0.55415  0.55415  0.94584  1.0000
  C   C33       1.0  0.88807  0.61193  0.88807  1.0000
  C   C34       1.0  0.94584  0.55416  0.94584  1.0000
  C   C35       1.0  0.61194  0.88808  0.61192  1.0000
  C   C36       1.0  0.55417  0.94584  0.55415  1.0000
  C   C37       1.0  0.38805  0.11194  0.11194  1.0000
  C   C38       1.0  0.44582  0.05418  0.05417  1.0000
  C   C39       1.0  0.11193  0.38807  0.38807  1.0000
  C   C40       1.0  0.05416  0.44584  0.44584  1.0000
  C   C41       1.0  0.38807  0.11193  0.38807  1.0000
  C   C42       1.0  0.44584  0.05416  0.44584  1.0000
  C   C43       1.0  0.11194  0.38805  0.11194  1.0000
  C   C44       1.0  0.05417  0.44582  0.05418  1.0000
  C   C45       1.0  0.38806  0.38807  0.11194  1.0000
  C   C46       1.0  0.44583  0.44583  0.05417  1.0000
  C   C47       1.0  0.11193  0.11193  0.38806  1.0000
  C   C48       1.0  0.05417  0.05417  0.44583  1.0000
  O   O1        1.0  0.75007  0.75002  0.74999  1.0000
  O   O2        1.0  0.24999  0.24994  0.24997  1.0000
  O   O3        1.0  0.69689  0.86551  0.86551  1.0000
  O   O4        1.0  0.57210  0.86551  0.86551  1.0000
  O   O5        1.0  0.86551  0.57211  0.69687  1.0000
  O   O6        1.0  0.86550  0.69691  0.57210  1.0000
  O   O7        1.0  0.86551  0.86551  0.69688  1.0000
  O   O8        1.0  0.86550  0.86550  0.57211  1.0000
  O   O9        1.0  0.57209  0.69688  0.86551  1.0000
  O   O10       1.0  0.69688  0.57210  0.86551  1.0000
  O   O11       1.0  0.86550  0.69689  0.86550  1.0000
  O   O12       1.0  0.86550  0.57211  0.86551  1.0000
  O   O13       1.0  0.69690  0.86550  0.57209  1.0000
  O   O14       1.0  0.57210  0.86552  0.69686  1.0000
  O   O15       1.0  0.42789  0.13449  0.13449  1.0000
  O   O16       1.0  0.30309  0.13451  0.13451  1.0000
  O   O17       1.0  0.13449  0.42790  0.30312  1.0000
  O   O18       1.0  0.13449  0.30312  0.42790  1.0000
  O   O19       1.0  0.42790  0.13450  0.30311  1.0000
  O   O20       1.0  0.30312  0.13449  0.42789  1.0000
  O   O21       1.0  0.13451  0.30308  0.13451  1.0000
  O   O22       1.0  0.13449  0.42788  0.13450  1.0000
  O   O23       1.0  0.42790  0.30310  0.13450  1.0000
  O   O24       1.0  0.30312  0.42788  0.13450  1.0000
  O   O25       1.0  0.13449  0.13449  0.42789  1.0000
  O   O26       1.0  0.13450  0.13450  0.30309  1.0000
