data_image0
_chemical_formula_structural       Cu12H24C72O48
_chemical_formula_sum              "Cu12 H24 C72 O48"
_cell_length_a       18.7231
_cell_length_b       18.7189
_cell_length_c       18.7168
_cell_angle_alpha    60.0188
_cell_angle_beta     60.0035
_cell_angle_gamma    59.9851

_space_group_name_H-M_alt    "P 1"
_space_group_IT_number       1

loop_
  _space_group_symop_operation_xyz
  'x, y, z'

loop_
  _atom_site_type_symbol
  _atom_site_label
  _atom_site_symmetry_multiplicity
  _atom_site_fract_x
  _atom_site_fract_y
  _atom_site_fract_z
  _atom_site_occupancy
  Cu  Cu1       1.0  0.43438  0.00001  0.56562  1.0000
  Cu  Cu2       1.0  0.99999  0.56563  0.00001  1.0000
  Cu  Cu3       1.0  0.56561  0.99999  0.43439  1.0000
  Cu  Cu4       1.0  0.00001  0.43434  0.99999  1.0000
  Cu  Cu5       1.0  0.43437  0.00000  1.00000  1.0000
  Cu  Cu6       1.0  0.00000  0.43435  0.56565  1.0000
  Cu  Cu7       1.0  0.99999  0.00000  0.56568  1.0000
  Cu  Cu8       1.0  0.43436  0.56564  0.00001  1.0000
  Cu  Cu9       1.0  0.99999  0.56560  0.43439  1.0000
  Cu  Cu10      1.0  0.56564  0.43436  0.99999  1.0000
  Cu  Cu11      1.0  0.56561  0.99999  0.00000  1.0000
  Cu  Cu12      1.0  0.00001  1.00000  0.43438  1.0000
  H   H1        1.0  0.49629  0.26606  0.26617  1.0000
  H   H2        1.0  0.02854  0.50369  0.73383  1.0000
  H   H3        1.0  0.26617  0.97147  0.49629  1.0000
  H   H4        1.0  0.73384  0.73394  0.02854  1.0000
  H   H5        1.0  0.73382  0.02853  0.73393  1.0000
  H   H6        1.0  0.26611  0.49627  0.97150  1.0000
  H   H7        1.0  0.02854  0.73384  0.50366  1.0000
  H   H8        1.0  0.73383  0.02853  0.50370  1.0000
  H   H9        1.0  0.97149  0.26612  0.26611  1.0000
  H   H10       1.0  0.73389  0.50373  0.02851  1.0000
  H   H11       1.0  0.49634  0.26604  0.97146  1.0000
  H   H12       1.0  0.49634  0.97144  0.26611  1.0000
  H   H13       1.0  0.26610  0.26612  0.49634  1.0000
  H   H14       1.0  0.26607  0.49628  0.26619  1.0000
  H   H15       1.0  0.26617  0.26606  0.97146  1.0000
  H   H16       1.0  0.97146  0.26616  0.49633  1.0000
  H   H17       1.0  0.26619  0.97147  0.26606  1.0000
  H   H18       1.0  0.97146  0.49632  0.26617  1.0000
  H   H19       1.0  0.73390  0.73388  0.50365  1.0000
  H   H20       1.0  0.50366  0.02856  0.73390  1.0000
  H   H21       1.0  0.73393  0.50373  0.73381  1.0000
  H   H22       1.0  0.50367  0.73396  0.02854  1.0000
  H   H23       1.0  0.02851  0.73387  0.73389  1.0000
  H   H24       1.0  0.50371  0.73393  0.73383  1.0000
  C   C1        1.0  0.38638  0.25700  0.38643  1.0000
  C   C2        1.0  0.02979  0.61360  0.74298  1.0000
  C   C3        1.0  0.38643  0.97018  0.38639  1.0000
  C   C4        1.0  0.74298  0.61364  0.02979  1.0000
  C   C5        1.0  0.61357  0.02982  0.74299  1.0000
  C   C6        1.0  0.25702  0.38637  0.97021  1.0000
  C   C7        1.0  0.02980  0.61360  0.61358  1.0000
  C   C8        1.0  0.74295  0.02981  0.61361  1.0000
  C   C9        1.0  0.97021  0.38641  0.25702  1.0000
  C   C10       1.0  0.61359  0.61364  0.02979  1.0000
  C   C11       1.0  0.38642  0.38636  0.97021  1.0000
  C   C12       1.0  0.38644  0.97018  0.25700  1.0000
  C   C13       1.0  0.25700  0.38639  0.38643  1.0000
  C   C14       1.0  0.38639  0.38637  0.25705  1.0000
  C   C15       1.0  0.38642  0.25698  0.97020  1.0000
  C   C16       1.0  0.97021  0.25702  0.38641  1.0000
  C   C17       1.0  0.25705  0.97019  0.38638  1.0000
  C   C18       1.0  0.97020  0.38641  0.38642  1.0000
  C   C19       1.0  0.61362  0.74300  0.61357  1.0000
  C   C20       1.0  0.61357  0.02982  0.61361  1.0000
  C   C21       1.0  0.74300  0.61363  0.61356  1.0000
  C   C22       1.0  0.61358  0.74302  0.02980  1.0000
  C   C23       1.0  0.02979  0.74298  0.61358  1.0000
  C   C24       1.0  0.61362  0.61362  0.74295  1.0000
  C   C25       1.0  0.43057  0.16298  0.43060  1.0000
  C   C26       1.0  0.02417  0.56940  0.83700  1.0000
  C   C27       1.0  0.43059  0.97586  0.43057  1.0000
  C   C28       1.0  0.83700  0.56943  0.02418  1.0000
  C   C29       1.0  0.56940  0.02413  0.83703  1.0000
  C   C30       1.0  0.16300  0.43058  0.97582  1.0000
  C   C31       1.0  0.02413  0.56942  0.56940  1.0000
  C   C32       1.0  0.83696  0.02418  0.56942  1.0000
  C   C33       1.0  0.97582  0.43060  0.16300  1.0000
  C   C34       1.0  0.56939  0.56943  0.02419  1.0000
  C   C35       1.0  0.43062  0.43057  0.97581  1.0000
  C   C36       1.0  0.43060  0.97587  0.16297  1.0000
  C   C37       1.0  0.16297  0.43056  0.43060  1.0000
  C   C38       1.0  0.43058  0.43056  0.16304  1.0000
  C   C39       1.0  0.43060  0.16294  0.97587  1.0000
  C   C40       1.0  0.97581  0.16301  0.43061  1.0000
  C   C41       1.0  0.16304  0.97582  0.43058  1.0000
  C   C42       1.0  0.97587  0.43058  0.43060  1.0000
  C   C43       1.0  0.56943  0.83702  0.56941  1.0000
  C   C44       1.0  0.56940  0.02414  0.56944  1.0000
  C   C45       1.0  0.83703  0.56945  0.56940  1.0000
  C   C46       1.0  0.56940  0.83706  0.02413  1.0000
  C   C47       1.0  0.02418  0.83699  0.56939  1.0000
  C   C48       1.0  0.56942  0.56942  0.83696  1.0000
  C   C49       1.0  0.42966  0.30010  0.30017  1.0000
  C   C50       1.0  0.02993  0.57031  0.69984  1.0000
  C   C51       1.0  0.30017  0.97007  0.42966  1.0000
  C   C52       1.0  0.69985  0.69992  0.02993  1.0000
  C   C53       1.0  0.69983  0.02993  0.69989  1.0000
  C   C54       1.0  0.30014  0.42963  0.97011  1.0000
  C   C55       1.0  0.02993  0.69986  0.57029  1.0000
  C   C56       1.0  0.69983  0.02993  0.57034  1.0000
  C   C57       1.0  0.97011  0.30013  0.30013  1.0000
  C   C58       1.0  0.69987  0.57037  0.02990  1.0000
  C   C59       1.0  0.42970  0.30007  0.97008  1.0000
  C   C60       1.0  0.42973  0.97004  0.30012  1.0000
  C   C61       1.0  0.30011  0.30012  0.42972  1.0000
  C   C62       1.0  0.30011  0.42965  0.30017  1.0000
  C   C63       1.0  0.30015  0.30008  0.97008  1.0000
  C   C64       1.0  0.97008  0.30015  0.42970  1.0000
  C   C65       1.0  0.30018  0.97007  0.30010  1.0000
  C   C66       1.0  0.97007  0.42969  0.30015  1.0000
  C   C67       1.0  0.69988  0.69988  0.57027  1.0000
  C   C68       1.0  0.57028  0.02996  0.69988  1.0000
  C   C69       1.0  0.69990  0.57035  0.69982  1.0000
  C   C70       1.0  0.57030  0.69992  0.02992  1.0000
  C   C71       1.0  0.02990  0.69987  0.69986  1.0000
  C   C72       1.0  0.57034  0.69990  0.69983  1.0000
  O   O1        1.0  0.38627  0.12647  0.50815  1.0000
  O   O2        1.0  0.02092  0.61371  0.87353  1.0000
  O   O3        1.0  0.50814  0.97912  0.38627  1.0000
  O   O4        1.0  0.87352  0.49184  0.02092  1.0000
  O   O5        1.0  0.49186  0.02086  0.87354  1.0000
  O   O6        1.0  0.12650  0.38626  0.97908  1.0000
  O   O7        1.0  0.02086  0.49188  0.61369  1.0000
  O   O8        1.0  0.87347  0.02093  0.61374  1.0000
  O   O9        1.0  0.97908  0.50816  0.12650  1.0000
  O   O10       1.0  0.49182  0.61373  0.02094  1.0000
  O   O11       1.0  0.38629  0.50816  0.97907  1.0000
  O   O12       1.0  0.38630  0.97914  0.12645  1.0000
  O   O13       1.0  0.12644  0.50813  0.38629  1.0000
  O   O14       1.0  0.50817  0.38625  0.12651  1.0000
  O   O15       1.0  0.50816  0.12641  0.97913  1.0000
  O   O16       1.0  0.97906  0.12648  0.38630  1.0000
  O   O17       1.0  0.12651  0.97906  0.50816  1.0000
  O   O18       1.0  0.97913  0.38630  0.50816  1.0000
  O   O19       1.0  0.49186  0.87356  0.61371  1.0000
  O   O20       1.0  0.61370  0.02088  0.49186  1.0000
  O   O21       1.0  0.87355  0.61374  0.49185  1.0000
  O   O22       1.0  0.61369  0.87357  0.02087  1.0000
  O   O23       1.0  0.02093  0.87352  0.49181  1.0000
  O   O24       1.0  0.61374  0.49185  0.87348  1.0000
  O   O25       1.0  0.61373  0.87353  0.49186  1.0000
  O   O26       1.0  0.97907  0.38629  0.12648  1.0000
  O   O27       1.0  0.49186  0.02088  0.61373  1.0000
  O   O28       1.0  0.12647  0.50817  0.97908  1.0000
  O   O29       1.0  0.50814  0.97914  0.12645  1.0000
  O   O30       1.0  0.87351  0.61374  0.02092  1.0000
  O   O31       1.0  0.97913  0.50814  0.38630  1.0000
  O   O32       1.0  0.12651  0.97908  0.38626  1.0000
  O   O33       1.0  0.02092  0.49184  0.87350  1.0000
  O   O34       1.0  0.50819  0.38626  0.97906  1.0000
  O   O35       1.0  0.61371  0.49183  0.02094  1.0000
  O   O36       1.0  0.61370  0.02086  0.87356  1.0000
  O   O37       1.0  0.87355  0.49189  0.61369  1.0000
  O   O38       1.0  0.49184  0.61373  0.87349  1.0000
  O   O39       1.0  0.49184  0.87359  0.02087  1.0000
  O   O40       1.0  0.02093  0.87351  0.61371  1.0000
  O   O41       1.0  0.87350  0.02093  0.49183  1.0000
  O   O42       1.0  0.02087  0.61371  0.49183  1.0000
  O   O43       1.0  0.50814  0.12644  0.38630  1.0000
  O   O44       1.0  0.38630  0.97912  0.50814  1.0000
  O   O45       1.0  0.12645  0.38628  0.50813  1.0000
  O   O46       1.0  0.38630  0.12643  0.97913  1.0000
  O   O47       1.0  0.97905  0.12650  0.50818  1.0000
  O   O48       1.0  0.38626  0.50813  0.12653  1.0000
