# generated using pymatgen
data_Zn4H12C24O13
_symmetry_space_group_name_H-M   'P 1'
_cell_length_a   18.26600000
_cell_length_b   18.26600000
_cell_length_c   18.26600000
_cell_angle_alpha   60.00000000
_cell_angle_beta   60.00000000
_cell_angle_gamma   60.00000000
_symmetry_Int_Tables_number   1
_chemical_formula_structural   Zn4H12C24O13
_chemical_formula_sum   'Zn8 H24 C48 O26'
_cell_volume   4309.38565945
_cell_formula_units_Z   2
loop_
 _symmetry_equiv_pos_site_id
 _symmetry_equiv_pos_as_xyz
  1  'x, y, z'
loop_
 _atom_site_type_symbol
 _atom_site_label
 _atom_site_symmetry_multiplicity
 _atom_site_fract_x
 _atom_site_fract_y
 _atom_site_fract_z
 _atom_site_occupancy
  Zn  Zn0  1  0.88014000  0.70662000  0.70662000  1.0
  Zn  Zn1  1  0.70662000  0.88014000  0.70662000  1.0
  Zn  Zn2  1  0.70662000  0.70662000  0.70662000  1.0
  Zn  Zn3  1  0.70662000  0.70662000  0.88014000  1.0
  Zn  Zn4  1  0.11986000  0.29338000  0.29338000  1.0
  Zn  Zn5  1  0.29338000  0.11986000  0.29338000  1.0
  Zn  Zn6  1  0.29338000  0.29338000  0.11986000  1.0
  Zn  Zn7  1  0.29338000  0.29338000  0.29338000  1.0
  H  H8  1  0.06500000  0.54480000  0.84540000  1.0
  H  H9  1  0.54480000  0.06500000  0.54480000  1.0
  H  H10  1  0.54480000  0.84540000  0.54480000  1.0
  H  H11  1  0.84540000  0.54480000  0.06500000  1.0
  H  H12  1  0.54480000  0.06500000  0.84540000  1.0
  H  H13  1  0.84540000  0.54480000  0.54480000  1.0
  H  H14  1  0.06500000  0.54480000  0.54480000  1.0
  H  H15  1  0.54480000  0.84540000  0.06500000  1.0
  H  H16  1  0.54480000  0.54480000  0.84540000  1.0
  H  H17  1  0.06500000  0.84540000  0.54480000  1.0
  H  H18  1  0.84540000  0.06500000  0.54480000  1.0
  H  H19  1  0.54480000  0.54480000  0.06500000  1.0
  H  H20  1  0.93500000  0.45520000  0.45520000  1.0
  H  H21  1  0.45520000  0.93500000  0.15460000  1.0
  H  H22  1  0.45520000  0.15460000  0.93500000  1.0
  H  H23  1  0.15460000  0.45520000  0.45520000  1.0
  H  H24  1  0.45520000  0.93500000  0.45520000  1.0
  H  H25  1  0.15460000  0.45520000  0.93500000  1.0
  H  H26  1  0.93500000  0.45520000  0.15460000  1.0
  H  H27  1  0.45520000  0.15460000  0.45520000  1.0
  H  H28  1  0.45520000  0.45520000  0.93500000  1.0
  H  H29  1  0.93500000  0.15460000  0.45520000  1.0
  H  H30  1  0.15460000  0.93500000  0.45520000  1.0
  H  H31  1  0.45520000  0.45520000  0.15460000  1.0
  C  C32  1  0.03890000  0.52690000  0.90730000  1.0
  C  C33  1  0.52690000  0.03890000  0.52690000  1.0
  C  C34  1  0.52690000  0.90730000  0.52690000  1.0
  C  C35  1  0.90730000  0.52690000  0.03890000  1.0
  C  C36  1  0.52690000  0.03890000  0.90730000  1.0
  C  C37  1  0.90730000  0.52690000  0.52690000  1.0
  C  C38  1  0.03890000  0.52690000  0.52690000  1.0
  C  C39  1  0.52690000  0.90730000  0.03890000  1.0
  C  C40  1  0.52690000  0.52690000  0.90730000  1.0
  C  C41  1  0.03890000  0.90730000  0.52690000  1.0
  C  C42  1  0.90730000  0.03890000  0.52690000  1.0
  C  C43  1  0.52690000  0.52690000  0.03890000  1.0
  C  C44  1  0.96110000  0.47310000  0.47310000  1.0
  C  C45  1  0.47310000  0.96110000  0.09270000  1.0
  C  C46  1  0.47310000  0.09270000  0.96110000  1.0
  C  C47  1  0.09270000  0.47310000  0.47310000  1.0
  C  C48  1  0.47310000  0.96110000  0.47310000  1.0
  C  C49  1  0.09270000  0.47310000  0.96110000  1.0
  C  C50  1  0.96110000  0.47310000  0.09270000  1.0
  C  C51  1  0.47310000  0.09270000  0.47310000  1.0
  C  C52  1  0.47310000  0.47310000  0.96110000  1.0
  C  C53  1  0.96110000  0.09270000  0.47310000  1.0
  C  C54  1  0.09270000  0.96110000  0.47310000  1.0
  C  C55  1  0.47310000  0.47310000  0.09270000  1.0
  C  C56  1  0.88870000  0.61130000  0.88870000  1.0
  C  C57  1  0.94620000  0.55380000  0.94620000  1.0
  C  C58  1  0.61130000  0.88870000  0.61130000  1.0
  C  C59  1  0.55380000  0.94620000  0.55380000  1.0
  C  C60  1  0.61130000  0.88870000  0.88870000  1.0
  C  C61  1  0.55380000  0.94620000  0.94620000  1.0
  C  C62  1  0.88870000  0.61130000  0.61130000  1.0
  C  C63  1  0.94620000  0.55380000  0.55380000  1.0
  C  C64  1  0.61130000  0.61130000  0.88870000  1.0
  C  C65  1  0.55380000  0.55380000  0.94620000  1.0
  C  C66  1  0.88870000  0.88870000  0.61130000  1.0
  C  C67  1  0.94620000  0.94620000  0.55380000  1.0
  C  C68  1  0.11130000  0.38870000  0.38870000  1.0
  C  C69  1  0.05380000  0.44620000  0.44620000  1.0
  C  C70  1  0.38870000  0.11130000  0.11130000  1.0
  C  C71  1  0.44620000  0.05380000  0.05380000  1.0
  C  C72  1  0.38870000  0.11130000  0.38870000  1.0
  C  C73  1  0.44620000  0.05380000  0.44620000  1.0
  C  C74  1  0.11130000  0.38870000  0.11130000  1.0
  C  C75  1  0.05380000  0.44620000  0.05380000  1.0
  C  C76  1  0.38870000  0.38870000  0.11130000  1.0
  C  C77  1  0.44620000  0.44620000  0.05380000  1.0
  C  C78  1  0.11130000  0.11130000  0.38870000  1.0
  C  C79  1  0.05380000  0.05380000  0.44620000  1.0
  O  O80  1  0.75000000  0.75000000  0.75000000  1.0
  O  O81  1  0.25000000  0.25000000  0.25000000  1.0
  O  O82  1  0.92977000  0.63400000  0.80223000  1.0
  O  O83  1  0.63400000  0.92977000  0.63400000  1.0
  O  O84  1  0.63400000  0.80223000  0.63400000  1.0
  O  O85  1  0.80223000  0.63400000  0.92977000  1.0
  O  O86  1  0.63400000  0.92977000  0.80223000  1.0
  O  O87  1  0.80223000  0.63400000  0.63400000  1.0
  O  O88  1  0.92977000  0.63400000  0.63400000  1.0
  O  O89  1  0.63400000  0.80223000  0.92977000  1.0
  O  O90  1  0.63400000  0.63400000  0.80223000  1.0
  O  O91  1  0.92977000  0.80223000  0.63400000  1.0
  O  O92  1  0.80223000  0.92977000  0.63400000  1.0
  O  O93  1  0.63400000  0.63400000  0.92977000  1.0
  O  O94  1  0.07023000  0.36600000  0.36600000  1.0
  O  O95  1  0.36600000  0.07023000  0.19777000  1.0
  O  O96  1  0.36600000  0.19777000  0.07023000  1.0
  O  O97  1  0.19777000  0.36600000  0.36600000  1.0
  O  O98  1  0.36600000  0.07023000  0.36600000  1.0
  O  O99  1  0.19777000  0.36600000  0.07023000  1.0
  O  O100  1  0.07023000  0.36600000  0.19777000  1.0
  O  O101  1  0.36600000  0.19777000  0.36600000  1.0
  O  O102  1  0.36600000  0.36600000  0.07023000  1.0
  O  O103  1  0.07023000  0.19777000  0.36600000  1.0
  O  O104  1  0.19777000  0.07023000  0.36600000  1.0
  O  O105  1  0.36600000  0.36600000  0.19777000  1.0
