# generated using pymatgen
data_Zn4C24N12O13
_symmetry_space_group_name_H-M   'P 1'
_cell_length_a   18.20552474
_cell_length_b   18.20552474
_cell_length_c   18.20552474
_cell_angle_alpha   60.00000000
_cell_angle_beta   60.00000000
_cell_angle_gamma   60.00000000
_symmetry_Int_Tables_number   1
_chemical_formula_structural   Zn4C24N12O13
_chemical_formula_sum   'Zn8 C48 N24 O26'
_cell_volume   4266.72454125
_cell_formula_units_Z   2
loop_
 _symmetry_equiv_pos_site_id
 _symmetry_equiv_pos_as_xyz
  1  'x, y, z'
loop_
 _atom_site_type_symbol
 _atom_site_label
 _atom_site_symmetry_multiplicity
 _atom_site_fract_x
 _atom_site_fract_y
 _atom_site_fract_z
 _atom_site_occupancy
  C  C0  1  0.52660000  0.91140000  0.03540000  1.0
  C  C1  1  0.52660000  0.03540000  0.91140000  1.0
  C  C2  1  0.03540000  0.52660000  0.52660000  1.0
  C  C3  1  0.91140000  0.52660000  0.52660000  1.0
  C  C4  1  0.91140000  0.03540000  0.52660000  1.0
  C  C5  1  0.03540000  0.91140000  0.52660000  1.0
  C  C6  1  0.52660000  0.52660000  0.03540000  1.0
  C  C7  1  0.52660000  0.52660000  0.91140000  1.0
  C  C8  1  0.03540000  0.52660000  0.91140000  1.0
  C  C9  1  0.91140000  0.52660000  0.03540000  1.0
  C  C10  1  0.52660000  0.03540000  0.52660000  1.0
  C  C11  1  0.52660000  0.91140000  0.52660000  1.0
  C  C12  1  0.47340000  0.08860000  0.96460000  1.0
  C  C13  1  0.47340000  0.96460000  0.08860000  1.0
  C  C14  1  0.08860000  0.47340000  0.47340000  1.0
  C  C15  1  0.96460000  0.47340000  0.47340000  1.0
  C  C16  1  0.47340000  0.96460000  0.47340000  1.0
  C  C17  1  0.47340000  0.08860000  0.47340000  1.0
  C  C18  1  0.08860000  0.47340000  0.96460000  1.0
  C  C19  1  0.96460000  0.47340000  0.08860000  1.0
  C  C20  1  0.47340000  0.47340000  0.08860000  1.0
  C  C21  1  0.47340000  0.47340000  0.96460000  1.0
  C  C22  1  0.08860000  0.96460000  0.47340000  1.0
  C  C23  1  0.96460000  0.08860000  0.47340000  1.0
  C  C24  1  0.61050000  0.88950000  0.88950000  1.0
  C  C25  1  0.55570000  0.94430000  0.94430000  1.0
  C  C26  1  0.88950000  0.61050000  0.61050000  1.0
  C  C27  1  0.94430000  0.55570000  0.55570000  1.0
  C  C28  1  0.88950000  0.88950000  0.61050000  1.0
  C  C29  1  0.94430000  0.94430000  0.55570000  1.0
  C  C30  1  0.61050000  0.61050000  0.88950000  1.0
  C  C31  1  0.55570000  0.55570000  0.94430000  1.0
  C  C32  1  0.88950000  0.61050000  0.88950000  1.0
  C  C33  1  0.94430000  0.55570000  0.94430000  1.0
  C  C34  1  0.61050000  0.88950000  0.61050000  1.0
  C  C35  1  0.55570000  0.94430000  0.55570000  1.0
  C  C36  1  0.38950000  0.11050000  0.11050000  1.0
  C  C37  1  0.44430000  0.05570000  0.05570000  1.0
  C  C38  1  0.11050000  0.38950000  0.38950000  1.0
  C  C39  1  0.05570000  0.44430000  0.44430000  1.0
  C  C40  1  0.38950000  0.11050000  0.38950000  1.0
  C  C41  1  0.44430000  0.05570000  0.44430000  1.0
  C  C42  1  0.11050000  0.38950000  0.11050000  1.0
  C  C43  1  0.05570000  0.44430000  0.05570000  1.0
  C  C44  1  0.38950000  0.38950000  0.11050000  1.0
  C  C45  1  0.44430000  0.44430000  0.05570000  1.0
  C  C46  1  0.11050000  0.11050000  0.38950000  1.0
  C  C47  1  0.05570000  0.05570000  0.44430000  1.0
  N  N48  1  0.54740000  0.81720000  0.08800000  1.0
  N  N49  1  0.54740000  0.08800000  0.81720000  1.0
  N  N50  1  0.08800000  0.54740000  0.54740000  1.0
  N  N51  1  0.81720000  0.54740000  0.54740000  1.0
  N  N52  1  0.81720000  0.08800000  0.54740000  1.0
  N  N53  1  0.08800000  0.81720000  0.54740000  1.0
  N  N54  1  0.54740000  0.54740000  0.08800000  1.0
  N  N55  1  0.54740000  0.54740000  0.81720000  1.0
  N  N56  1  0.08800000  0.54740000  0.81720000  1.0
  N  N57  1  0.81720000  0.54740000  0.08800000  1.0
  N  N58  1  0.54740000  0.08800000  0.54740000  1.0
  N  N59  1  0.54740000  0.81720000  0.54740000  1.0
  N  N60  1  0.45260000  0.18280000  0.91200000  1.0
  N  N61  1  0.45260000  0.91200000  0.18280000  1.0
  N  N62  1  0.18280000  0.45260000  0.45260000  1.0
  N  N63  1  0.91200000  0.45260000  0.45260000  1.0
  N  N64  1  0.45260000  0.91200000  0.45260000  1.0
  N  N65  1  0.45260000  0.18280000  0.45260000  1.0
  N  N66  1  0.18280000  0.45260000  0.91200000  1.0
  N  N67  1  0.91200000  0.45260000  0.18280000  1.0
  N  N68  1  0.45260000  0.45260000  0.18280000  1.0
  N  N69  1  0.45260000  0.45260000  0.91200000  1.0
  N  N70  1  0.18280000  0.91200000  0.45260000  1.0
  N  N71  1  0.91200000  0.18280000  0.45260000  1.0
  O  O72  1  0.63400000  0.80460000  0.92740000  1.0
  O  O73  1  0.63400000  0.92740000  0.80460000  1.0
  O  O74  1  0.92740000  0.63400000  0.63400000  1.0
  O  O75  1  0.80460000  0.63400000  0.63400000  1.0
  O  O76  1  0.80460000  0.92740000  0.63400000  1.0
  O  O77  1  0.92740000  0.80460000  0.63400000  1.0
  O  O78  1  0.63400000  0.63400000  0.92740000  1.0
  O  O79  1  0.63400000  0.63400000  0.80460000  1.0
  O  O80  1  0.92740000  0.63400000  0.80460000  1.0
  O  O81  1  0.80460000  0.63400000  0.92740000  1.0
  O  O82  1  0.63400000  0.92740000  0.63400000  1.0
  O  O83  1  0.63400000  0.80460000  0.63400000  1.0
  O  O84  1  0.36600000  0.19540000  0.07260000  1.0
  O  O85  1  0.36600000  0.07260000  0.19540000  1.0
  O  O86  1  0.19540000  0.36600000  0.36600000  1.0
  O  O87  1  0.07260000  0.36600000  0.36600000  1.0
  O  O88  1  0.36600000  0.07260000  0.36600000  1.0
  O  O89  1  0.36600000  0.19540000  0.36600000  1.0
  O  O90  1  0.19540000  0.36600000  0.07260000  1.0
  O  O91  1  0.07260000  0.36600000  0.19540000  1.0
  O  O92  1  0.36600000  0.36600000  0.19540000  1.0
  O  O93  1  0.36600000  0.36600000  0.07260000  1.0
  O  O94  1  0.19540000  0.07260000  0.36600000  1.0
  O  O95  1  0.07260000  0.19540000  0.36600000  1.0
  O  O96  1  0.75000000  0.75000000  0.75000000  1.0
  O  O97  1  0.25000000  0.25000000  0.25000000  1.0
  Zn  Zn98  1  0.70658000  0.70658000  0.88026000  1.0
  Zn  Zn99  1  0.70658000  0.88026000  0.70658000  1.0
  Zn  Zn100  1  0.88026000  0.70658000  0.70658000  1.0
  Zn  Zn101  1  0.70658000  0.70658000  0.70658000  1.0
  Zn  Zn102  1  0.29342000  0.29342000  0.11974000  1.0
  Zn  Zn103  1  0.29342000  0.11974000  0.29342000  1.0
  Zn  Zn104  1  0.29342000  0.29342000  0.29342000  1.0
  Zn  Zn105  1  0.11974000  0.29342000  0.29342000  1.0
