data_image0
_chemical_formula_structural       Zr6H28C48O32
_chemical_formula_sum              "Zr6 H28 C48 O32"
_cell_length_a       14.7734
_cell_length_b       14.7734
_cell_length_c       14.7735
_cell_angle_alpha    59.9994
_cell_angle_beta     60
_cell_angle_gamma    60.0001

_space_group_name_H-M_alt    "P 1"
_space_group_IT_number       1

loop_
  _space_group_symop_operation_xyz
  'x, y, z'

loop_
  _atom_site_type_symbol
  _atom_site_label
  _atom_site_symmetry_multiplicity
  _atom_site_fract_x
  _atom_site_fract_y
  _atom_site_fract_z
  _atom_site_occupancy
  Zr  Zr1       1.0  0.88033  0.88033  0.61967  1.0000
  Zr  Zr2       1.0  0.11967  0.11967  0.38033  1.0000
  Zr  Zr3       1.0  0.11968  0.88032  0.61968  1.0000
  Zr  Zr4       1.0  0.88032  0.11968  0.38032  1.0000
  Zr  Zr5       1.0  0.11969  0.88031  0.38031  1.0000
  Zr  Zr6       1.0  0.88031  0.11968  0.61969  1.0000
  H   H1        1.0  0.09416  0.71751  0.59416  1.0000
  H   H2        1.0  0.09417  0.09416  0.21751  1.0000
  H   H3        1.0  0.09416  0.09416  0.59416  1.0000
  H   H4        1.0  0.71752  0.09416  0.59416  1.0000
  H   H5        1.0  0.14415  0.41584  0.35362  1.0000
  H   H6        1.0  0.85362  0.58639  0.64414  1.0000
  H   H7        1.0  0.14415  0.58640  0.35362  1.0000
  H   H8        1.0  0.85362  0.41583  0.64415  1.0000
  H   H9        1.0  0.41584  0.14414  0.08639  1.0000
  H   H10       1.0  0.58640  0.85362  0.91584  1.0000
  H   H11       1.0  0.58640  0.14415  0.91583  1.0000
  H   H12       1.0  0.41584  0.85362  0.08640  1.0000
  H   H13       1.0  0.85362  0.14415  0.91583  1.0000
  H   H14       1.0  0.14414  0.85362  0.08640  1.0000
  H   H15       1.0  0.85362  0.14415  0.08639  1.0000
  H   H16       1.0  0.14414  0.85362  0.91584  1.0000
  H   H17       1.0  0.41584  0.58640  0.35361  1.0000
  H   H18       1.0  0.58640  0.41584  0.64415  1.0000
  H   H19       1.0  0.58640  0.41584  0.35362  1.0000
  H   H20       1.0  0.41584  0.58640  0.64414  1.0000
  H   H21       1.0  0.85362  0.41583  0.08640  1.0000
  H   H22       1.0  0.14415  0.58640  0.91583  1.0000
  H   H23       1.0  0.85362  0.58640  0.91584  1.0000
  H   H24       1.0  0.14415  0.41584  0.08640  1.0000
  H   H25       1.0  0.41584  0.85362  0.64415  1.0000
  H   H26       1.0  0.58640  0.14415  0.35361  1.0000
  H   H27       1.0  0.58640  0.85362  0.64415  1.0000
  H   H28       1.0  0.41584  0.14414  0.35362  1.0000
  C   C1        1.0  0.99754  0.69815  0.49751  1.0000
  C   C2        1.0  0.30680  0.99750  0.19816  1.0000
  C   C3        1.0  0.99752  0.30680  0.49754  1.0000
  C   C4        1.0  0.69816  0.99754  0.80680  1.0000
  C   C5        1.0  0.99754  0.69816  0.80680  1.0000
  C   C6        1.0  0.69816  0.99753  0.49751  1.0000
  C   C7        1.0  0.99752  0.30680  0.19815  1.0000
  C   C8        1.0  0.30679  0.99751  0.49754  1.0000
  C   C9        1.0  0.30681  0.69815  0.49752  1.0000
  C   C10       1.0  0.99752  0.99753  0.80680  1.0000
  C   C11       1.0  0.69815  0.30681  0.49753  1.0000
  C   C12       1.0  0.99753  0.99752  0.19815  1.0000
  C   C13       1.0  0.99829  0.40717  0.49827  1.0000
  C   C14       1.0  0.99827  0.59628  0.49828  1.0000
  C   C15       1.0  0.08094  0.45423  0.41649  1.0000
  C   C16       1.0  0.91649  0.54833  0.58094  1.0000
  C   C17       1.0  0.08094  0.54833  0.41648  1.0000
  C   C18       1.0  0.91649  0.45424  0.58094  1.0000
  C   C19       1.0  0.40717  0.99828  0.09627  1.0000
  C   C20       1.0  0.59628  0.99827  0.90717  1.0000
  C   C21       1.0  0.45423  0.08094  0.04833  1.0000
  C   C22       1.0  0.54834  0.91649  0.95423  1.0000
  C   C23       1.0  0.54834  0.08094  0.95424  1.0000
  C   C24       1.0  0.45424  0.91649  0.04833  1.0000
  C   C25       1.0  0.99828  0.99827  0.90718  1.0000
  C   C26       1.0  0.99827  0.99828  0.09627  1.0000
  C   C27       1.0  0.91649  0.08094  0.95423  1.0000
  C   C28       1.0  0.08094  0.91649  0.04833  1.0000
  C   C29       1.0  0.91649  0.08094  0.04833  1.0000
  C   C30       1.0  0.08094  0.91649  0.95423  1.0000
  C   C31       1.0  0.40717  0.59627  0.49828  1.0000
  C   C32       1.0  0.59628  0.40717  0.49827  1.0000
  C   C33       1.0  0.45425  0.54833  0.41649  1.0000
  C   C34       1.0  0.54834  0.45424  0.58093  1.0000
  C   C35       1.0  0.54834  0.45424  0.41649  1.0000
  C   C36       1.0  0.45424  0.54834  0.58094  1.0000
  C   C37       1.0  0.99829  0.40716  0.09628  1.0000
  C   C38       1.0  0.99827  0.59628  0.90717  1.0000
  C   C39       1.0  0.91649  0.45424  0.04834  1.0000
  C   C40       1.0  0.08094  0.54834  0.95424  1.0000
  C   C41       1.0  0.91649  0.54833  0.95424  1.0000
  C   C42       1.0  0.08094  0.45424  0.04834  1.0000
  C   C43       1.0  0.40717  0.99829  0.49827  1.0000
  C   C44       1.0  0.59628  0.99827  0.49828  1.0000
  C   C45       1.0  0.45424  0.91649  0.58094  1.0000
  C   C46       1.0  0.54834  0.08094  0.41648  1.0000
  C   C47       1.0  0.54834  0.91649  0.58094  1.0000
  C   C48       1.0  0.45424  0.08094  0.41649  1.0000
  O   O1        1.0  0.92066  0.73771  0.57454  1.0000
  O   O2        1.0  0.26709  0.07454  0.23771  1.0000
  O   O3        1.0  0.07455  0.26708  0.42066  1.0000
  O   O4        1.0  0.73771  0.92066  0.76709  1.0000
  O   O5        1.0  0.07456  0.73770  0.76710  1.0000
  O   O6        1.0  0.73770  0.07456  0.42065  1.0000
  O   O7        1.0  0.92065  0.26709  0.23769  1.0000
  O   O8        1.0  0.26710  0.92064  0.57456  1.0000
  O   O9        1.0  0.26710  0.73769  0.42065  1.0000
  O   O10       1.0  0.92065  0.07456  0.76710  1.0000
  O   O11       1.0  0.73769  0.26711  0.57456  1.0000
  O   O12       1.0  0.07456  0.92065  0.23769  1.0000
  O   O13       1.0  0.07456  0.92065  0.76710  1.0000
  O   O14       1.0  0.73770  0.26710  0.42066  1.0000
  O   O15       1.0  0.92065  0.07456  0.23770  1.0000
  O   O16       1.0  0.26710  0.73769  0.57455  1.0000
  O   O17       1.0  0.92066  0.73771  0.76708  1.0000
  O   O18       1.0  0.26708  0.07454  0.42066  1.0000
  O   O19       1.0  0.07455  0.26709  0.23770  1.0000
  O   O20       1.0  0.73771  0.92066  0.57454  1.0000
  O   O21       1.0  0.73770  0.07457  0.76710  1.0000
  O   O22       1.0  0.07457  0.73769  0.42064  1.0000
  O   O23       1.0  0.26710  0.92064  0.23769  1.0000
  O   O24       1.0  0.92065  0.26710  0.57457  1.0000
  O   O25       1.0  0.79786  0.06738  0.56738  1.0000
  O   O26       1.0  0.06738  0.06739  0.56738  1.0000
  O   O27       1.0  0.06738  0.06738  0.29786  1.0000
  O   O28       1.0  0.06738  0.79786  0.56738  1.0000
  O   O29       1.0  0.14878  0.95040  0.45040  1.0000
  O   O30       1.0  0.95042  0.95041  0.45040  1.0000
  O   O31       1.0  0.95039  0.14878  0.45042  1.0000
  O   O32       1.0  0.95040  0.95042  0.64878  1.0000
