data_image0
_chemical_formula_structural       Zn8H24C48O26
_chemical_formula_sum              "Zn8 H24 C48 O26"
_cell_length_a       18.4202
_cell_length_b       18.4202
_cell_length_c       18.4202
_cell_angle_alpha    60
_cell_angle_beta     60.0001
_cell_angle_gamma    60.0001

_space_group_name_H-M_alt    "P 1"
_space_group_IT_number       1

loop_
  _space_group_symop_operation_xyz
  'x, y, z'

loop_
  _atom_site_type_symbol
  _atom_site_label
  _atom_site_symmetry_multiplicity
  _atom_site_fract_x
  _atom_site_fract_y
  _atom_site_fract_z
  _atom_site_occupancy
  Zn  Zn1       1.0  0.70648  0.70648  0.88055  1.0000
  Zn  Zn2       1.0  0.70648  0.88055  0.70648  1.0000
  Zn  Zn3       1.0  0.88055  0.70648  0.70648  1.0000
  Zn  Zn4       1.0  0.70648  0.70648  0.70648  1.0000
  Zn  Zn5       1.0  0.29352  0.29352  0.11945  1.0000
  Zn  Zn6       1.0  0.29352  0.11945  0.29352  1.0000
  Zn  Zn7       1.0  0.29352  0.29352  0.29352  1.0000
  Zn  Zn8       1.0  0.11945  0.29351  0.29352  1.0000
  H   H1        1.0  0.54831  0.83516  0.06823  1.0000
  H   H2        1.0  0.54831  0.06823  0.83516  1.0000
  H   H3        1.0  0.06823  0.54831  0.54831  1.0000
  H   H4        1.0  0.83516  0.54831  0.54831  1.0000
  H   H5        1.0  0.54831  0.54831  0.83516  1.0000
  H   H6        1.0  0.54831  0.54831  0.06823  1.0000
  H   H7        1.0  0.06823  0.83516  0.54831  1.0000
  H   H8        1.0  0.83516  0.06823  0.54831  1.0000
  H   H9        1.0  0.54831  0.06823  0.54831  1.0000
  H   H10       1.0  0.54831  0.83516  0.54831  1.0000
  H   H11       1.0  0.06823  0.54831  0.83516  1.0000
  H   H12       1.0  0.83516  0.54831  0.06823  1.0000
  H   H13       1.0  0.45169  0.16484  0.93177  1.0000
  H   H14       1.0  0.45169  0.93177  0.16484  1.0000
  H   H15       1.0  0.16484  0.45169  0.45169  1.0000
  H   H16       1.0  0.93177  0.45169  0.45169  1.0000
  H   H17       1.0  0.93177  0.45169  0.16484  1.0000
  H   H18       1.0  0.16485  0.45169  0.93177  1.0000
  H   H19       1.0  0.45169  0.16484  0.45169  1.0000
  H   H20       1.0  0.45169  0.93177  0.45169  1.0000
  H   H21       1.0  0.16484  0.93177  0.45169  1.0000
  H   H22       1.0  0.93177  0.16484  0.45169  1.0000
  H   H23       1.0  0.45169  0.45169  0.16484  1.0000
  H   H24       1.0  0.45169  0.45169  0.93177  1.0000
  C   C1        1.0  0.61101  0.88899  0.88899  1.0000
  C   C2        1.0  0.88899  0.61101  0.61101  1.0000
  C   C3        1.0  0.61101  0.61101  0.88899  1.0000
  C   C4        1.0  0.88899  0.88899  0.61101  1.0000
  C   C5        1.0  0.61101  0.88899  0.61101  1.0000
  C   C6        1.0  0.88899  0.61101  0.88899  1.0000
  C   C7        1.0  0.38899  0.11101  0.11101  1.0000
  C   C8        1.0  0.11101  0.38899  0.38899  1.0000
  C   C9        1.0  0.11101  0.38899  0.11101  1.0000
  C   C10       1.0  0.38899  0.11101  0.38899  1.0000
  C   C11       1.0  0.11101  0.11101  0.38899  1.0000
  C   C12       1.0  0.38899  0.38899  0.11101  1.0000
  C   C13       1.0  0.55364  0.94636  0.94636  1.0000
  C   C14       1.0  0.94636  0.55364  0.55364  1.0000
  C   C15       1.0  0.55364  0.55364  0.94636  1.0000
  C   C16       1.0  0.94636  0.94636  0.55364  1.0000
  C   C17       1.0  0.55364  0.94636  0.55364  1.0000
  C   C18       1.0  0.94636  0.55364  0.94636  1.0000
  C   C19       1.0  0.44636  0.05364  0.05364  1.0000
  C   C20       1.0  0.05364  0.44636  0.44636  1.0000
  C   C21       1.0  0.05364  0.44636  0.05364  1.0000
  C   C22       1.0  0.44636  0.05364  0.44636  1.0000
  C   C23       1.0  0.05364  0.05364  0.44636  1.0000
  C   C24       1.0  0.44636  0.44636  0.05364  1.0000
  C   C25       1.0  0.52669  0.90740  0.03923  1.0000
  C   C26       1.0  0.52669  0.03923  0.90740  1.0000
  C   C27       1.0  0.03923  0.52669  0.52669  1.0000
  C   C28       1.0  0.90740  0.52669  0.52669  1.0000
  C   C29       1.0  0.52669  0.52669  0.90740  1.0000
  C   C30       1.0  0.52669  0.52669  0.03923  1.0000
  C   C31       1.0  0.03923  0.90740  0.52669  1.0000
  C   C32       1.0  0.90740  0.03923  0.52669  1.0000
  C   C33       1.0  0.52669  0.03923  0.52669  1.0000
  C   C34       1.0  0.52669  0.90740  0.52669  1.0000
  C   C35       1.0  0.03923  0.52669  0.90740  1.0000
  C   C36       1.0  0.90740  0.52669  0.03923  1.0000
  C   C37       1.0  0.47331  0.09260  0.96077  1.0000
  C   C38       1.0  0.47331  0.96077  0.09260  1.0000
  C   C39       1.0  0.09260  0.47331  0.47331  1.0000
  C   C40       1.0  0.96077  0.47331  0.47331  1.0000
  C   C41       1.0  0.96077  0.47331  0.09260  1.0000
  C   C42       1.0  0.09260  0.47331  0.96077  1.0000
  C   C43       1.0  0.47331  0.09260  0.47331  1.0000
  C   C44       1.0  0.47331  0.96077  0.47331  1.0000
  C   C45       1.0  0.09260  0.96077  0.47331  1.0000
  C   C46       1.0  0.96077  0.09260  0.47331  1.0000
  C   C47       1.0  0.47331  0.47331  0.09260  1.0000
  C   C48       1.0  0.47331  0.47331  0.96077  1.0000
  O   O1        1.0  0.75000  0.75000  0.75000  1.0000
  O   O2        1.0  0.25000  0.25000  0.25000  1.0000
  O   O3        1.0  0.63317  0.80498  0.92868  1.0000
  O   O4        1.0  0.63317  0.92868  0.80498  1.0000
  O   O5        1.0  0.92868  0.63317  0.63317  1.0000
  O   O6        1.0  0.80498  0.63317  0.63317  1.0000
  O   O7        1.0  0.63317  0.63317  0.80498  1.0000
  O   O8        1.0  0.63317  0.63317  0.92868  1.0000
  O   O9        1.0  0.92868  0.80498  0.63317  1.0000
  O   O10       1.0  0.80498  0.92868  0.63317  1.0000
  O   O11       1.0  0.63317  0.92868  0.63317  1.0000
  O   O12       1.0  0.63317  0.80498  0.63317  1.0000
  O   O13       1.0  0.92868  0.63317  0.80498  1.0000
  O   O14       1.0  0.80498  0.63317  0.92869  1.0000
  O   O15       1.0  0.36683  0.19502  0.07131  1.0000
  O   O16       1.0  0.36683  0.07131  0.19502  1.0000
  O   O17       1.0  0.19502  0.36683  0.36683  1.0000
  O   O18       1.0  0.07132  0.36683  0.36683  1.0000
  O   O19       1.0  0.07132  0.36683  0.19502  1.0000
  O   O20       1.0  0.19502  0.36683  0.07132  1.0000
  O   O21       1.0  0.36683  0.19502  0.36683  1.0000
  O   O22       1.0  0.36683  0.07132  0.36683  1.0000
  O   O23       1.0  0.19502  0.07131  0.36683  1.0000
  O   O24       1.0  0.07132  0.19502  0.36683  1.0000
  O   O25       1.0  0.36683  0.36683  0.19502  1.0000
  O   O26       1.0  0.36683  0.36683  0.07132  1.0000
