data_image0
_chemical_formula_structural       Zn8H30C48N6O26
_chemical_formula_sum              "Zn8 H30 C48 N6 O26"
_cell_length_a       18.3679
_cell_length_b       18.2349
_cell_length_c       18.387
_cell_angle_alpha    60.5571
_cell_angle_beta     60.8763
_cell_angle_gamma    60.1754

_space_group_name_H-M_alt    "P 1"
_space_group_IT_number       1

loop_
  _space_group_symop_operation_xyz
  'x, y, z'

loop_
  _atom_site_type_symbol
  _atom_site_label
  _atom_site_symmetry_multiplicity
  _atom_site_fract_x
  _atom_site_fract_y
  _atom_site_fract_z
  _atom_site_occupancy
  Zn  Zn1       1.0  0.04456  0.84993  0.05181  1.0000
  Zn  Zn2       1.0  0.04461  0.02865  0.04846  1.0000
  Zn  Zn3       1.0  0.87206  0.02586  0.04810  1.0000
  Zn  Zn4       1.0  0.04541  0.02317  0.87750  1.0000
  Zn  Zn5       1.0  0.45929  0.61046  0.46844  1.0000
  Zn  Zn6       1.0  0.45609  0.43666  0.46286  1.0000
  Zn  Zn7       1.0  0.45831  0.44030  0.63304  1.0000
  Zn  Zn8       1.0  0.63154  0.44025  0.46507  1.0000
  H   H1        1.0  0.18851  0.66529  0.22701  1.0000
  H   H2        1.0  0.28184  0.57392  0.32651  1.0000
  H   H3        1.0  0.28468  0.89181  0.27896  1.0000
  H   H4        1.0  0.33696  0.78911  0.34712  1.0000
  H   H5        1.0  0.21090  0.90296  0.19688  1.0000
  H   H6        1.0  0.91307  0.66129  0.19299  1.0000
  H   H7        1.0  0.81210  0.57030  0.28887  1.0000
  H   H8        1.0  0.54628  0.88873  0.29909  1.0000
  H   H9        1.0  0.52726  0.78664  0.35244  1.0000
  H   H10       1.0  0.68878  0.89925  0.22108  1.0000
  H   H11       1.0  0.16988  0.66570  0.91140  1.0000
  H   H12       1.0  0.27041  0.57405  0.81046  1.0000
  H   H13       1.0  0.38864  0.85522  0.58658  1.0000
  H   H14       1.0  0.42231  0.76272  0.55698  1.0000
  H   H15       1.0  0.26500  0.88253  0.71340  1.0000
  H   H16       1.0  0.68482  0.21950  0.17588  1.0000
  H   H17       1.0  0.59231  0.31138  0.27664  1.0000
  H   H18       1.0  0.89516  0.19760  0.34663  1.0000
  H   H19       1.0  0.79426  0.27218  0.39341  1.0000
  H   H20       1.0  0.91143  0.14540  0.24322  1.0000
  H   H21       1.0  0.21613  0.16750  0.69035  1.0000
  H   H22       1.0  0.31321  0.26261  0.59610  1.0000
  H   H23       1.0  0.22878  0.31786  0.89685  1.0000
  H   H24       1.0  0.30114  0.36363  0.79610  1.0000
  H   H25       1.0  0.17422  0.21458  0.91692  1.0000
  H   H26       1.0  0.91228  0.20471  0.69008  1.0000
  H   H27       1.0  0.81052  0.30453  0.59886  1.0000
  H   H28       1.0  0.55306  0.19783  0.89834  1.0000
  H   H29       1.0  0.53187  0.27473  0.79856  1.0000
  H   H30       1.0  0.69257  0.14155  0.91572  1.0000
  C   C1        1.0  0.13954  0.84618  0.14635  1.0000
  C   C2        1.0  0.19481  0.78975  0.20636  1.0000
  C   C3        1.0  0.21420  0.69634  0.24262  1.0000
  C   C4        1.0  0.26565  0.64628  0.29761  1.0000
  C   C5        1.0  0.29867  0.68580  0.31905  1.0000
  C   C6        1.0  0.35351  0.62653  0.37808  1.0000
  C   C7        1.0  0.27870  0.78061  0.28253  1.0000
  C   C8        1.0  0.22664  0.83055  0.22603  1.0000
  C   C9        1.0  0.86351  0.84249  0.14518  1.0000
  C   C10       1.0  0.80553  0.78589  0.20194  1.0000
  C   C11       1.0  0.84205  0.69244  0.22054  1.0000
  C   C12       1.0  0.78609  0.64263  0.27349  1.0000
  C   C13       1.0  0.69391  0.68240  0.30921  1.0000
  C   C14       1.0  0.63904  0.62408  0.36437  1.0000
  C   C15       1.0  0.65705  0.77712  0.29070  1.0000
  C   C16       1.0  0.71505  0.82683  0.23643  1.0000
  C   C17       1.0  0.14939  0.83785  0.87332  1.0000
  C   C18       1.0  0.21227  0.77961  0.81695  1.0000
  C   C19       1.0  0.21343  0.69181  0.84644  1.0000
  C   C20       1.0  0.26902  0.64162  0.79051  1.0000
  C   C21       1.0  0.32477  0.67543  0.70575  1.0000
  C   C22       1.0  0.37897  0.61804  0.64972  1.0000
  C   C23       1.0  0.32566  0.76347  0.67691  1.0000
  C   C24       1.0  0.26760  0.81416  0.73445  1.0000
  C   C25       1.0  0.86157  0.12294  0.14366  1.0000
  C   C26       1.0  0.80389  0.17748  0.20412  1.0000
  C   C27       1.0  0.71316  0.22365  0.21316  1.0000
  C   C28       1.0  0.66240  0.27408  0.26903  1.0000
  C   C29       1.0  0.69836  0.28046  0.31740  1.0000
  C   C30       1.0  0.63963  0.33793  0.37361  1.0000
  C   C31       1.0  0.79011  0.23226  0.30943  1.0000
  C   C32       1.0  0.84106  0.18186  0.25137  1.0000
  C   C33       1.0  0.13345  0.12794  0.86750  1.0000
  C   C34       1.0  0.19004  0.18592  0.80941  1.0000
  C   C35       1.0  0.22862  0.19910  0.71824  1.0000
  C   C36       1.0  0.28191  0.25171  0.66665  1.0000
  C   C37       1.0  0.29825  0.29314  0.70219  1.0000
  C   C38       1.0  0.35630  0.34802  0.64255  1.0000
  C   C39       1.0  0.25810  0.28076  0.79450  1.0000
  C   C40       1.0  0.20462  0.22611  0.84617  1.0000
  C   C41       1.0  0.86500  0.11087  0.86568  1.0000
  C   C42       1.0  0.80711  0.16765  0.80837  1.0000
  C   C43       1.0  0.84226  0.21268  0.71827  1.0000
  C   C44       1.0  0.78584  0.26743  0.66831  1.0000
  C   C45       1.0  0.69484  0.27851  0.70431  1.0000
  C   C46       1.0  0.63957  0.33930  0.64618  1.0000
  C   C47       1.0  0.65962  0.23125  0.79535  1.0000
  C   C48       1.0  0.71802  0.17682  0.84568  1.0000
  N   N1        1.0  0.30977  0.82425  0.29789  1.0000
  N   N2        1.0  0.56896  0.82124  0.32519  1.0000
  N   N3        1.0  0.37887  0.80066  0.59664  1.0000
  N   N4        1.0  0.82986  0.23189  0.35572  1.0000
  N   N5        1.0  0.27028  0.31738  0.83541  1.0000
  N   N6        1.0  0.57308  0.23701  0.83543  1.0000
  O   O1        1.0  0.00197  0.98138  0.00675  1.0000
  O   O2        1.0  0.12317  0.93061  0.11727  1.0000
  O   O3        1.0  0.11332  0.80523  0.12907  1.0000
  O   O4        1.0  0.37681  0.54214  0.39811  1.0000
  O   O5        1.0  0.37441  0.66405  0.40601  1.0000
  O   O6        1.0  0.82485  0.92711  0.12736  1.0000
  O   O7        1.0  0.94683  0.80167  0.11943  1.0000
  O   O8        1.0  0.67834  0.53926  0.38448  1.0000
  O   O9        1.0  0.55413  0.66243  0.38888  1.0000
  O   O10       1.0  0.13162  0.92215  0.83409  1.0000
  O   O11       1.0  0.11823  0.79867  0.95561  1.0000
  O   O12       1.0  0.38699  0.53508  0.68648  1.0000
  O   O13       1.0  0.41459  0.65453  0.56660  1.0000
  O   O14       1.0  0.82271  0.10873  0.11250  1.0000
  O   O15       1.0  0.94511  0.09476  0.12810  1.0000
  O   O16       1.0  0.67574  0.35095  0.40955  1.0000
  O   O17       1.0  0.55687  0.37183  0.38301  1.0000
  O   O18       1.0  0.11337  0.10198  0.82883  1.0000
  O   O19       1.0  0.10993  0.10892  0.95081  1.0000
  O   O20       1.0  0.37129  0.38338  0.67757  1.0000
  O   O21       1.0  0.38843  0.35776  0.56028  1.0000
  O   O22       1.0  0.94856  0.09121  0.82693  1.0000
  O   O23       1.0  0.82600  0.08707  0.94885  1.0000
  O   O24       1.0  0.55571  0.35130  0.68061  1.0000
  O   O25       1.0  0.67715  0.37725  0.56509  1.0000
  O   O26       1.0  0.50195  0.48102  0.50486  1.0000
