data_image0
_chemical_formula_structural       Zn8H12C48Br12O26
_chemical_formula_sum              "Zn8 H12 C48 Br12 O26"
_cell_length_a       18.1188
_cell_length_b       18.2004
_cell_length_c       18.2326
_cell_angle_alpha    61.7008
_cell_angle_beta     61.6541
_cell_angle_gamma    61.5361

_space_group_name_H-M_alt    "P 1"
_space_group_IT_number       1

loop_
  _space_group_symop_operation_xyz
  'x, y, z'

loop_
  _atom_site_type_symbol
  _atom_site_label
  _atom_site_symmetry_multiplicity
  _atom_site_fract_x
  _atom_site_fract_y
  _atom_site_fract_z
  _atom_site_occupancy
  Zn  Zn1       1.0  0.85884  0.04963  0.05993  1.0000
  Zn  Zn2       1.0  0.03507  0.04798  0.06675  1.0000
  Zn  Zn3       1.0  0.03160  0.05096  0.88964  1.0000
  Zn  Zn4       1.0  0.03113  0.87677  0.05820  1.0000
  Zn  Zn5       1.0  0.61961  0.46477  0.47491  1.0000
  Zn  Zn6       1.0  0.44408  0.45708  0.47747  1.0000
  Zn  Zn7       1.0  0.44592  0.63582  0.47483  1.0000
  Zn  Zn8       1.0  0.44680  0.46801  0.64765  1.0000
  H   H1        1.0  0.78927  0.31872  0.11003  1.0000
  H   H2        1.0  0.68795  0.18436  0.43565  1.0000
  H   H3        1.0  0.78625  0.09728  0.80933  1.0000
  H   H4        1.0  0.69392  0.42391  0.72453  1.0000
  H   H5        1.0  0.78727  0.81484  0.33013  1.0000
  H   H6        1.0  0.68825  0.70094  0.20412  1.0000
  H   H7        1.0  0.07139  0.32490  0.82413  1.0000
  H   H8        1.0  0.40024  0.19446  0.72604  1.0000
  H   H9        1.0  0.30907  0.80250  0.10571  1.0000
  H   H10       1.0  0.17135  0.69410  0.43049  1.0000
  H   H11       1.0  0.30311  0.82510  0.80670  1.0000
  H   H12       1.0  0.17703  0.70047  0.71906  1.0000
  C   C1        1.0  0.85390  0.14116  0.16032  1.0000
  C   C2        1.0  0.79532  0.19755  0.21939  1.0000
  C   C3        1.0  0.76770  0.28929  0.18133  1.0000
  C   C4        1.0  0.71236  0.34262  0.23476  1.0000
  C   C5        1.0  0.68324  0.30571  0.32636  1.0000
  C   C6        1.0  0.71030  0.21393  0.36438  1.0000
  C   C7        1.0  0.76616  0.16056  0.31093  1.0000
  C   C8        1.0  0.62503  0.36286  0.38473  1.0000
  C   C9        1.0  0.85063  0.14598  0.87950  1.0000
  C   C10       1.0  0.79331  0.20601  0.82140  1.0000
  C   C11       1.0  0.76602  0.16874  0.79084  1.0000
  C   C12       1.0  0.71302  0.22332  0.73694  1.0000
  C   C13       1.0  0.68678  0.31510  0.71266  1.0000
  C   C14       1.0  0.71417  0.35241  0.74306  1.0000
  C   C15       1.0  0.76712  0.29781  0.79714  1.0000
  C   C16       1.0  0.62892  0.37415  0.65509  1.0000
  C   C17       1.0  0.84946  0.86915  0.15279  1.0000
  C   C18       1.0  0.79136  0.81180  0.21124  1.0000
  C   C19       1.0  0.76560  0.78995  0.30248  1.0000
  C   C20       1.0  0.71244  0.73625  0.35767  1.0000
  C   C21       1.0  0.68420  0.70396  0.32295  1.0000
  C   C22       1.0  0.70985  0.72590  0.23174  1.0000
  C   C23       1.0  0.76307  0.77951  0.17659  1.0000
  C   C24       1.0  0.62683  0.64585  0.38096  1.0000
  C   C25       1.0  0.12577  0.14669  0.88857  1.0000
  C   C26       1.0  0.18328  0.20476  0.83159  1.0000
  C   C27       1.0  0.14341  0.29630  0.80333  1.0000
  C   C28       1.0  0.19599  0.35055  0.74786  1.0000
  C   C29       1.0  0.28844  0.31466  0.71951  1.0000
  C   C30       1.0  0.32827  0.22313  0.74773  1.0000
  C   C31       1.0  0.27573  0.16894  0.80343  1.0000
  C   C32       1.0  0.34684  0.37167  0.65971  1.0000
  C   C33       1.0  0.13008  0.86608  0.15517  1.0000
  C   C34       1.0  0.18649  0.80571  0.21424  1.0000
  C   C35       1.0  0.27879  0.77898  0.17681  1.0000
  C   C36       1.0  0.33174  0.72246  0.23069  1.0000
  C   C37       1.0  0.29386  0.69172  0.32204  1.0000
  C   C38       1.0  0.20156  0.71775  0.35941  1.0000
  C   C39       1.0  0.14860  0.77445  0.30555  1.0000
  C   C40       1.0  0.35039  0.63459  0.38119  1.0000
  C   C41       1.0  0.12525  0.87228  0.87607  1.0000
  C   C42       1.0  0.18383  0.81581  0.81722  1.0000
  C   C43       1.0  0.27553  0.79753  0.78780  1.0000
  C   C44       1.0  0.33121  0.74382  0.73473  1.0000
  C   C45       1.0  0.29641  0.70859  0.70968  1.0000
  C   C46       1.0  0.20465  0.72757  0.73842  1.0000
  C   C47       1.0  0.14900  0.78071  0.79205  1.0000
  C   C48       1.0  0.35474  0.64979  0.65313  1.0000
  Br  Br1       1.0  0.67556  0.46725  0.18137  1.0000
  Br  Br2       1.0  0.80227  0.03588  0.36387  1.0000
  Br  Br3       1.0  0.67580  0.17148  0.69658  1.0000
  Br  Br4       1.0  0.80373  0.34973  0.83792  1.0000
  Br  Br5       1.0  0.67889  0.70663  0.48153  1.0000
  Br  Br6       1.0  0.79706  0.80858  0.05273  1.0000
  Br  Br7       1.0  0.14019  0.47487  0.70993  1.0000
  Br  Br8       1.0  0.33152  0.04453  0.83988  1.0000
  Br  Br9       1.0  0.45719  0.68718  0.17855  1.0000
  Br  Br10      1.0  0.02316  0.80979  0.35784  1.0000
  Br  Br11      1.0  0.45581  0.71868  0.69635  1.0000
  Br  Br12      1.0  0.02443  0.80583  0.83025  1.0000
  O   O1        1.0  0.98945  0.00666  0.01907  1.0000
  O   O2        1.0  0.93702  0.11864  0.14243  1.0000
  O   O3        1.0  0.81348  0.12346  0.13294  1.0000
  O   O4        1.0  0.54199  0.37866  0.40959  1.0000
  O   O5        1.0  0.66557  0.38853  0.40413  1.0000
  O   O6        1.0  0.93368  0.12295  0.84017  1.0000
  O   O7        1.0  0.81026  0.12311  0.96175  1.0000
  O   O8        1.0  0.54597  0.39605  0.69515  1.0000
  O   O9        1.0  0.66870  0.39661  0.57275  1.0000
  O   O10       1.0  0.93248  0.82891  0.13197  1.0000
  O   O11       1.0  0.80974  0.95188  0.13152  1.0000
  O   O12       1.0  0.54365  0.68516  0.40229  1.0000
  O   O13       1.0  0.66743  0.56327  0.40106  1.0000
  O   O14       1.0  0.10224  0.12651  0.84696  1.0000
  O   O15       1.0  0.10571  0.12481  0.97131  1.0000
  O   O16       1.0  0.36772  0.39877  0.69761  1.0000
  O   O17       1.0  0.37091  0.38522  0.57783  1.0000
  O   O18       1.0  0.10929  0.82794  0.12825  1.0000
  O   O19       1.0  0.11024  0.94845  0.13708  1.0000
  O   O20       1.0  0.37119  0.67649  0.40384  1.0000
  O   O21       1.0  0.37025  0.55161  0.40352  1.0000
  O   O22       1.0  0.10621  0.95514  0.83796  1.0000
  O   O23       1.0  0.10227  0.83123  0.95808  1.0000
  O   O24       1.0  0.37981  0.56769  0.69400  1.0000
  O   O25       1.0  0.37123  0.68767  0.57062  1.0000
  O   O26       1.0  0.48900  0.50585  0.51823  1.0000
